power-flow-agent/results/ieee14/2026-09-18/gpt-5.4/pfagent/traces/28_case14-parameterized-029-s0.transcript.txt
==============================================================================
TRANSCRIPT  pfagent  |  openrouter:openai/gpt-5.4  |  case14  |  case14-parameterized-029-s0  run 0
==============================================================================
date: 2026-09-18   seed: 0   difficulty: parameterized   tool variant: load_split

[system]   (hash 7da5e2a37ec4, from methods/pfagent/method.json prompt_files)
You are a power system power-flow analysis assistant. You help the user complete power system analysis tasks from natural-language requests.

## What you can do
You complete tasks by calling tool functions:
1. Load an IEEE standard test system (14, 30, 57, 118, 300 buses)
2. Run AC power flow
3. Modify the load at a bus and re-solve
4. Disconnect or reconnect a line and re-solve
5. Query the network status
6. Run an N-1 contingency analysis (disconnect branches one at a time and rank the worst cases)
7. Generate remedial-action suggestions (what-if load shedding or voltage adjustment) to reduce violation risk

## Key rules
- Never fabricate any numerical result. Every voltage, power, loss, or loading value must come from a tool return value.
- If a tool reports an error or a non-converged power flow, say so explicitly and do not report numbers for that state.
- If the request is ambiguous, state the interpretation you are using.
- Bus and line identifiers in the request are MATPOWER 1-based ids; pass them to the tools as given, unless the request itself states a different indexing convention for that identifier (e.g. "(0-based)"), in which case convert it to the MATPOWER 1-based id before calling any tool.
- After a network modification, re-solve before reporting any value.
- Always reply in English.

## Reply format
After each analysis, reply in this structure:
1. One-sentence summary
2. Key numbers (total load, total generation, total losses, voltage range) taken from the tool outputs
3. Violations, if any
4. Suggested next step

[user]
Load the 14-bus test case (case14) and run the power flow, then list every line whose loading is above 80%.

[tools available to the model]   (function-calling schema, --tool-variant load_split; enum values and defaults as sent)
  load_case(case_name: string* in {case14, case30, case57, case118, case300})  Load IEEE test case.
  run_powerflow()  Run power flow on current case.
  disconnect_line(from_bus: integer*, to_bus: integer*)  Disconnect line/branch between two buses and recompute.
  reconnect_line(from_bus: integer*, to_bus: integer*)  Reconnect line/branch between two buses and recompute.
  get_most_loaded_branch()  Get most loaded branch.
  run_n1_contingency(top_k: integer (default 5), criteria: string in {max_violations, max_overload, min_voltage} (default max_violations), max_candidates: integer (default 0))  Run N-1 contingency analysis.
  recommend_remedial_actions(max_actions: integer (default 5), allow_load_shed: boolean (default True), allow_voltage_control: boolean (default True), include_best_comparison: boolean (default True))  Recommend remedial actions.
  apply_remedial_action(action_index: integer*, confirmed: boolean (default False))  Apply one remedial action by index.
  get_status()  Get current network status.
  generate_plot(plot_type: string* in {voltage_heatmap, flow_diagram, violation_overview, comparison})  Generate one plot.
  set_active_load(bus_id: integer*, p_mw: number*)  Set a bus's active load (MW) and recompute. Use this when the request states only an active-power value. This tool has no reactive-power argument: the bus's present reactive load is always left unchanged. If the request also states a reactive-power value, use set_load instead.
  set_load(bus_id: integer*, p_mw: number*, q_mvar: number*)  Set a bus's active and reactive load (MW, Mvar) and recompute. Use this only when the request states both values. If the request states only an active-power value, use set_active_load instead -- do not invent a reactive-power value here to fill this in.

--- round 1 ---
[assistant]   (940 in / 20 out tokens, 1.4 s)
(no text)
tool_call  load_case(case_name="case14")
[tool load_case]   (gate: not applied)
{"case_name": "case14", "n_buses": 14, "n_generators": 5, "n_lines": 20, "n_loads": 11, "total_load_mw": 259.0350441033985, "total_gen_capacity_mw": 772.4000000000001}

--- round 2 ---
[assistant]   (1041 in / 15 out tokens, 1.4 s)
(no text)
tool_call  run_powerflow()
[tool run_powerflow]   (gate: pass)
{"case_name": "case14", "converged": true, "bus_voltages": [{"bus_id": 1, "vm_pu": 1.06, "va_deg": 0.0, "is_violation": true, "violation_type": "overvoltage"}, {"bus_id": 2, "vm_pu": 1.045, "va_deg": -4.998152052171022, "is_violation": false, "violation_type": null}, {"bus_id": 3, "vm_pu": 1.0099999999999998, "va_deg": -12.47385109489631, "is_violation": false, "violation_type": null}, {"bus_id": 4, "vm_pu": 1.0165388838291383, "va_deg": -10.448870297711156, "is_violation": false, "violation_type": null}, {"bus_id": 5, "vm_pu": 1.0186497143104432, "va_deg": -8.88894928878561, "is_violation": false, "violation_type": null}, {"bus_id": 6, "vm_pu": 1.0699999999999998, "va_deg": -14.463878962345138, "is_violation": true, "violation_type": "overvoltage"}, {"bus_id": 7, "vm_pu": 1.0604079769003005, "va_deg": -13.585421985322043, "is_violation": true, "violation_type": "overvoltage"}, {"bus_id": 8, "vm_pu": 1.09, "va_deg": -13.585421985322043, "is_violation": true, "violation_type": "overvoltage"}, {"bus_id": 9, "vm_pu": 1.0542191910894902, "va_deg": -15.211661993778153, "is_violation": true, "violation_type": "overvoltage"}, {"bus_id": 10, "vm_pu": 1.0499935652080852, "va_deg": -15.34698236118662, "is_violation": false, "violation_type": null}, {"bus_id": 11, "vm_pu": 1.0566607218895656, "va_deg": -15.02492429768112, "is_violation": true, "violation_type": "overvoltage"}, {"bus_id": 12, "vm_pu": 1.0550625428746725, "va_deg": -15.32272498056435, "is_violation": true, "violation_type": "overvoltage"}, {"bus_id": 13, "vm_pu": 1.049762784928797, "va_deg": -15.414585780442588, "is_violation": false, "violation_type": null}, {"bus_id": 14, "vm_pu": 1.0357448995575624, "va_deg": -16.221237810098025, "is_violation": false, "violation_type": null}], "line_flows": [{"line_id": 0, "from_bus": 1, "to_bus": 2, "p_from_mw": 157.3534664820745, "q_from_mvar": -20.514186486464588, "loading_percent": 1.5121502813814243, "is_violation": false}, {"line_id": 1, "from_bus": 1, "to_bus": 5, "p_from_mw": 76.48593631140875, "q_from_mvar": 4.17385285464635, "loading_percent": 0.7306470277595937, "is_violation": false}, {"line_id": 2, "from_bus": 2, "to_bus": 3, "p_from_mw": 70.83414196379589, "q_from_mvar": 3.8019399424706175, "loading_percent": 0.6866944266113881, "is_violation": false}, {"line_id": 3, "from_bus": 2, "to_bus": 4, "p_from_mw": 57.44621257133493, "q_from_mvar": -1.1967158961806181, "loading_percent": 0.5553977688319534, "is_violation": false}, {"line_id": 4, "from_bus": 2, "to_bus": 5, "p_from_mw": 42.61785938187397, "q_from_mvar": 1.399629217826469, "loading_percent": 0.41371592669307833, "is_violation": false}, {"line_id": 5, "from_bus": 3, "to_bus": 4, "p_from_mw": -19.57333272976084, "q_from_mvar": 3.529430356489534, "loading_percent": 0.20142089804898394, "is_violation": false}, {"line_id": 6, "from_bus": 4, "to_bus": 5, "p_from_mw": -62.03253017692042, "q_from_mvar": 15.481725718474488, "loading_percent": 0.6353035864987553, "is_violation": false}, {"line_id": 7, "from_bus": 6, "to_bus": 11, "p_from_mw": 7.3335736529029205, "q_from_mvar": 3.701258908972017, "loading_percent": 0.0775479925490902, "is_violation": false}, {"line_id": 8, "from_bus": 6, "to_bus": 12, "p_from_mw": 7.832520773492853, "q_from_mvar": 2.5342848624130014, "loading_percent": 0.07771465353615156, "is_violation": false}, {"line_id": 9, "from_bus": 6, "to_bus": 13, "p_from_mw": 18.132062870495382, "q_from_mvar": 7.533650638874717, "loading_percent": 0.18535690225297297, "is_violation": false}, {"line_id": 10, "from_bus": 9, "to_bus": 10, "p_from_mw": 4.449303789894856, "q_from_mvar": 3.600591229611911, "loading_percent": 0.05484152909939245, "is_violation": false}, {"line_id": 11, "from_bus": 9, "to_bus": 14, "p_from_mw": 8.625047420665506, "q_from_mvar": 3.211094387739287, "loading_percent": 0.08818245426542327, "is_violation": false}, {"line_id": 12, "from_bus": 10, "to_bus": 11, "p_from_mw": -4.059247368997422, "q_from_mvar": -1.9015629106858272, "loading_percent": 0.04312262746866926, "is_violation": false}, {"line_id": 13, "from_bus": 12, "to_bus": 13, "p_from_mw": 1.7920011001031872, "q_from_mvar": 0.8175459049467247, "loading_percent": 0.018857444248802462, "is_violation": false}, {"line_id": 14, "from_bus": 13, "to_bus": 14, "p_from_mw": 5.2289304036050295, "q_from_mvar": 1.6911090732757064, "loading_percent": 0.0528796221118031, "is_violation": false}, {"line_id": 100000, "from_bus": 4, "to_bus": 7, "p_from_mw": 28.838683761736387, "q_from_mvar": -9.649316207977092, "loading_percent": 0.302175873187813, "is_violation": false}, {"line_id": 100001, "from_bus": 4, "to_bus": 9, "p_from_mw": 16.51028029809536, "q_from_mvar": -0.2865545364542247, "loading_percent": 0.16408189336894663, "is_violation": false}, {"line_id": 100002, "from_bus": 5, "to_bus": 6, "p_from_mw": 45.08052785008175, "q_from_mvar": 12.157432601037199, "loading_percent": 0.46299241680999753, "is_violation": false}, {"line_id": 100003, "from_bus": 7, "to_bus": 8, "p_from_mw": 1.2736194698375241e-14, "q_from_mvar": -17.8141455279815, "loading_percent": 0.16969022097041722, "is_violation": false}, {"line_id": 100004, "from_bus": 7, "to_bus": 9, "p_from_mw": 28.838683761349444, "q_from_mvar": 6.374787239927275, "loading_percent": 0.28133686640058264, "is_violation": false}], "total_generation_mw": 272.39823859029315, "total_load_mw": 259.0350441033985, "total_loss_mw": 13.363194493303176, "voltage_violations": [{"bus_id": 1, "vm_pu": 1.06, "va_deg": 0.0, "is_violation": true, "violation_type": "overvoltage"}, {"bus_id": 6, "vm_pu": 1.0699999999999998, "va_deg": -14.463878962345138, "is_violation": true, "violation_type": "overvoltage"}, {"bus_id": 7, "vm_pu": 1.0604079769003005, "va_deg": -13.585421985322043, "is_violation": true, "violation_type": "overvoltage"}, {"bus_id": 8, "vm_pu": 1.09, "va_deg": -13.585421985322043, "is_violation": true, "violation_type": "overvoltage"}, {"bus_id": 9, "vm_pu": 1.0542191910894902, "va_deg": -15.211661993778153, "is_violation": true, "violation_type": "overvoltage"}, {"bus_id": 11, "vm_pu": 1.0566607218895656, "va_deg": -15.02492429768112, "is_violation": true, "violation_type": "overvoltage"}, {"bus_id": 12, "vm_pu": 1.0550625428746725, "va_deg": -15.32272498056435, "is_violation": true, "violation_type": "overvoltage"}], "thermal_violations": [], "summary_text": "", "solver_backend": "pandapower", "llm_prompt": null, "llm_response": null}

--- round 3 ---
[assistant]   (3677 in / 173 out tokens, 2.3 s)
1. The IEEE 14-bus case was loaded and the AC power flow converged; no line has loading above 80%.

2. Key numbers
- Total load: 259.035 MW
- Total generation: 272.398 MW
- Total losses: 13.363 MW
- Voltage range: 1.010 pu to 1.090 pu

Lines above 80% loading:
- None

3. Violations, if any
- Thermal violations: none
- Voltage violations: overvoltage at buses 1, 6, 7, 8, 9, 11, and 12

4. Suggested next step
- If you want, I can list the most heavily loaded lines ranked by loading, or investigate the overvoltage violations and suggest remedial actions.

[final answer]
1. The IEEE 14-bus case was loaded and the AC power flow converged; no line has loading above 80%.

2. Key numbers
- Total load: 259.035 MW
- Total generation: 272.398 MW
- Total losses: 13.363 MW
- Voltage range: 1.010 pu to 1.090 pu

Lines above 80% loading:
- None

3. Violations, if any
- Thermal violations: none
- Voltage violations: overvoltage at buses 1, 6, 7, 8, 9, 11, and 12

4. Suggested next step
- If you want, I can list the most heavily loaded lines ranked by loading, or investigate the overvoltage violations and suggest remedial actions.

[verification gate]   outcome: pass_first after 1 attempt(s)
attempt 1: pass
  V1  converged              pass  residual 0
  V2  balance                pass  residual 6.41e-09
  V3  no_isolated_buses      pass  residual 0
  V4  faithfulness           pass  residual 0
  V5  currency               pass  residual 0
